Circuit: * C:\Users\pcruiher08\Desktop\Challenge 2 - EC2.asc

Direct Newton iteration for .op point succeeded.

Date: Fri Mar 29 15:54:26 2019
Total elapsed time: 0.023 seconds.

tnom = 27
temp = 27
method = modified trap
totiter = 2099
traniter = 2096
tranpoints = 1049
accept = 1049
rejected = 0
matrix size = 4
fillins = 0
solver = Normal
Matrix Compiler1:       7 opcodes  0.0/[0.0]/0.0
Matrix Compiler2: 282 bytes object code size  0.0/0.0/[0.0]

